$# LS-DYNA Keyword file created by LS-PrePost(R) V4.8.8 - 08Jan2021
$# Created on Jan-9-2022 (23:47:47)
*KEYWORD MEMORY=1000000000 MEMORY2=1000000000 NCPU=8
*TITLE
$#                                                                         title
LS-DYNA keyword deck by LS-PrePost
*CONTROL_ENERGY
         2         2         2         1         2
*CONTROL_TERMINATION
     300.0         0       0.0      0.01       0.0         0
*DATABASE_BNDOUT
       0.0         0         0         1
*DATABASE_ELOUT
       2.0         3         0         1       270         0         0         0
*DATABASE_GLSTAT
       0.0         0         0         1
*DATABASE_MATSUM
       0.0         0         0         1
*DATABASE_NODFOR
       2.0         3         0         1
*DATABASE_NODOUT
       2.0         3         0         1       0.0         0
*DATABASE_RCFORC
       0.0         3         0         1
*DATABASE_BINARY_D3PLOT
       2.0         0         0         0         0
         0       0.0       0.0       0.0         0         0
*DATABASE_EXTENT_BINARY
       270         0         3         3         1         1         1         1
         0         0         0         1         1         1         2         1
         0         0       1.0         0         0         0                    
         0         0         0         0         0
*DATABASE_NODAL_FORCE_GROUP
         1         0
*DATABASE_HISTORY_NODE_SET
         2         3         0         0         0         0         0         0
*BOUNDARY_PRESCRIBED_MOTION_SET
         2         1         0         1       1.0         01.00000E28       0.0
*BOUNDARY_SPC_SET
         1         0         1         0         0         0         0         0
*SET_NODE_LIST_TITLE
constr
         1       0.0       0.0       0.0       0.0MECH
      1225      1226      1227      1228      1245      1246      1247      1248
      1249      1250      1251      1252      1285      1286      1295      1296
      1297      1298      1315      1316      1325      1326      1327      1328
      1345      1346      1347      1348      1365      1366      1367      1368
      1369      1370      1371      1372      1405      1406      1407      1425
      1426      1427      1428      1429      1430      1431      1432      1465
      1466      1475      1476      1477      1478      1495      1496      1505
      1506      1507      1508      1525      1526      1527      1528      1545
      1546      1547      1548      1549      1550      1551      1552      3567
      3568      3569      3570      3589      3590      3593      3594      3627
      3628      3637      3639      3657      3658      3667      3668      3669
      3670      3688      3690      3709      3710      3713      3714      3747
      3748      3749      3767      3768      3769      3770      3771      3772
      3773      3774      3807      3808      3817      3818      3819      3820
      3837      3838      3847      3848      3849      3850      3867      3868
      3869      3870      3887      3888      3889      3890      3891      3892
      3893      3894      5909      5910      5911      5912      5929      5930
      5931      5932      5933      5934      5935      5936      5969      5970
      5979      5980      5981      5982      6009      6010      6011      6012
      6049      6050      6051      6052      6053      6054      6055      6056
$ ... 10 like lines cut
*PART
box
         1         1         1         0         0         0         0         0
*SECTION_SOLID
         1         2         0                                       0          
*MAT_USER_DEFINED_MATERIAL_MODELS_TITLE
umat43
         1     0.027        43        16       270         0         3         4
         0         0         0         1         0         0                    
     70000       0.3  58333.33  26923.08     0.001      42.0      0.02       240
        79       0.0       1.4       0.1       0.0       0.0       1.0       0.0
*DEFINE_CURVE
         1         0       1.0       1.0       0.0       0.0         0         0
                 0.0                 0.0
               0.001                0.01
              300.01                0.01
*ELEMENT_SOLID (ten nodes format)
       1       1
      97      94      93      98     109     112     111     110       0       0
       2       1
     109     112     111     110     113     116     115     114       0       0
       3       1
     113     116     115     114     117     120     119     118       0       0
       4       1
     117     120     119     118     121     124     123     122       0       0
       5       1
     121     124     123     122     125     128     127     126       0       0
       6       1
     125     128     127     126     129     132     131     130       0       0
       7       1
     129     132     131     130     133     136     135     134       0       0
       8       1
     133     136     135     134     137     140     139     138       0       0
       9       1
     137     140     139     138     141     144     143     142       0       0
      10       1
     141     144     143     142     145     148     147     146       0       0
$ ... 11980 like lines cut
*NODE
      18       0.8920062      -0.8920062      -0.8920062       0       0
      19       0.9637298      -0.7302896      -0.9617312       0       0
      20          1.0211      -0.5575505        -1.01662       0       0
      21        1.062454      -0.3764207       -1.056657       0       0
      22        1.087844      -0.1896827       -1.080574       0       0
      23         1.09248    4.481417e-10        -1.09248       0       0
      24       0.9081283    3.725195e-10       -1.249931       0       0
      25       0.7014154    2.877247e-10       -1.376605       0       0
      26       0.4774313    1.958451e-10       -1.469382       0       0
      27       0.2416913    9.914311e-11       -1.525978       0       0
      28   -9.460447e-17   -1.545000e-08          -1.545       0       0
      29   -7.997176e-15      -0.2416913       -1.525978       0       0
      30   -1.580884e-14      -0.4774313       -1.469382       0       0
      31   -2.317757e-14      -0.7014153       -1.376605       0       0
      32   -2.997560e-14      -0.9081282       -1.249931       0       0
      33   -3.652068e-14        -1.09248        -1.09248       0       0
      34       0.1897369       -1.085407       -1.083012       0       0
      35       0.3765692       -1.061916       -1.057145       0       0
      36       0.5576814        -1.02159       -1.016056       0       0
      37       0.7303318      -0.9657791      -0.9596411       0       0
$ ... 6602 like lines cut
*SET_NODE_LIST_TITLE
load
         2       0.0       0.0       0.0       0.0MECH
       141       142       143       144       145       146       147       148
       165       166       167       168       185       186       187       188
       197       198       215       216       217       218       227       228
       261       262       263       264       265       266       267       268
       286       287       288       321       322       323       324       325
       326       327       328       345       346       347       348       365
       366       367       368       377       378       395       396       397
       398       407       408       441       442       443       444       445
       446       447       448       465       466       467       468      2396
      2397      2398      2399      2418      2419      2422      2423      2456
      2457      2466      2468      2486      2487      2496      2497      2498
      2499      2517      2519      2538      2539      2542      2543      2576
      2577      2578      2596      2597      2598      2599      2600      2601
      2602      2603      2636      2637      2646      2647      2648      2649
      2666      2667      2676      2677      2678      2679      2696      2697
      2698      2699      2716      2717      2718      2719      2720      2721
      2722      2723      4738      4739      4740      4741      4758      4759
      4760      4761      4762      4763      4764      4765      4798      4799
      4808      4809      4810      4811      4838      4839      4840      4841
      4878      4879      4880      4881      4882      4883      4884      4885
$ ... 10 like lines cut
*SET_NODE_LIST_TITLE
void
         3       0.0       0.0       0.0       0.0MECH
        20        22        24        26        27        29        30        32
        34        36        38        39        40        43        44        47
        48        50        51        57        59        61        62        64
        65        66        67        68        69        71        72        77
        81        82        84        86        87        89        90        92
        94        96        97       100       103       104       107      1587
      1589      1591      1593      1594      1601      1603      1605      1606
      1607      1610      1611      1614      1615      1617      1618      1624
      1631      1632      1633      1634      1635      1636      1638      1639
      1644      1648      1649      1651      1653      1654      1656      1657
      1659      1661      1663      1664      1667      1670      1671      1674
      2758      2760      2767      2768      2770      2772      2774      2776
      2777      2778      2781      2782      2785      2786      2788      2789
      2790      2793      2795      2797      2799      2800      2802      2803
      2804      2805      2806      2807      2809      2810      2815      2819
      2820      2822      2824      2825      2832      2834      2835      2838
      2841      2842      2845      3929      3931      3943      3945      3947
      3948      3949      3952      3953      3956      3957      3959      3960
      3961      3964      3966      3973      3974      3975      3976      3977
      3978      3980      3981      3986      3990      3991      3993      3995
$ ... 56 like lines cut
*CONSTRAINED_LINEAR_GLOBAL
         1
       145         2       1.0
      1548         2      -1.0
*CONSTRAINED_LINEAR_GLOBAL
         2
       145         3       1.0
      1548         3      -1.0
*CONSTRAINED_LINEAR_GLOBAL
         3
       146         2       1.0
      1547         2      -1.0
*CONSTRAINED_LINEAR_GLOBAL
         4
       146         3       1.0
      1547         3      -1.0
*CONSTRAINED_LINEAR_GLOBAL
         5
       147         2       1.0
      1546         2      -1.0
*CONSTRAINED_LINEAR_GLOBAL
         6
       147         3       1.0
      1546         3      -1.0
*CONSTRAINED_LINEAR_GLOBAL
         7
       148         2       1.0
      1545         2      -1.0
*CONSTRAINED_LINEAR_GLOBAL
         8
       148         3       1.0
      1545         3      -1.0
*CONSTRAINED_LINEAR_GLOBAL
         9
       167         2       1.0
      1526         2      -1.0
*CONSTRAINED_LINEAR_GLOBAL
        10
       167         3       1.0
      1526         3      -1.0
*CONSTRAINED_LINEAR_GLOBAL
        11
       168         2       1.0
      1525         2      -1.0
*CONSTRAINED_LINEAR_GLOBAL
        12
       168         3       1.0
      1525         3      -1.0
*CONSTRAINED_LINEAR_GLOBAL
        13
       217         2       1.0
      1476         2      -1.0
*CONSTRAINED_LINEAR_GLOBAL
        14
       217         3       1.0
      1476         3      -1.0
*CONSTRAINED_LINEAR_GLOBAL
        15
       218         2       1.0
      1475         2      -1.0
*CONSTRAINED_LINEAR_GLOBAL
        16
       218         3       1.0
      1475         3      -1.0
*CONSTRAINED_LINEAR_GLOBAL
        17
       266         2       1.0
      1427         2      -1.0
*CONSTRAINED_LINEAR_GLOBAL
        18
       266         3       1.0
      1427         3      -1.0
*CONSTRAINED_LINEAR_GLOBAL
        19
       267         2       1.0
      1426         2      -1.0
*CONSTRAINED_LINEAR_GLOBAL
        20
       267         3       1.0
      1426         3      -1.0
*CONSTRAINED_LINEAR_GLOBAL
        21
       325         2       1.0
      1368         2      -1.0
*CONSTRAINED_LINEAR_GLOBAL
        22
       325         3       1.0
      1368         3      -1.0
*CONSTRAINED_LINEAR_GLOBAL
        23
       326         2       1.0
      1367         2      -1.0
*CONSTRAINED_LINEAR_GLOBAL
        24
       326         3       1.0
      1367         3      -1.0
*CONSTRAINED_LINEAR_GLOBAL
        25
       327         2       1.0
      1366         2      -1.0
*CONSTRAINED_LINEAR_GLOBAL
        26
       327         3       1.0
      1366         3      -1.0
*CONSTRAINED_LINEAR_GLOBAL
        27
       328         2       1.0
      1365         2      -1.0
*CONSTRAINED_LINEAR_GLOBAL
        28
       328         3       1.0
      1365         3      -1.0
*CONSTRAINED_LINEAR_GLOBAL
        29
       347         2       1.0
      1346         2      -1.0
*CONSTRAINED_LINEAR_GLOBAL
        30
       347         3       1.0
      1346         3      -1.0
*CONSTRAINED_LINEAR_GLOBAL
        31
       348         2       1.0
      1345         2      -1.0
*CONSTRAINED_LINEAR_GLOBAL
        32
       348         3       1.0
      1345         3      -1.0
*CONSTRAINED_LINEAR_GLOBAL
        33
       367         2       1.0
      1326         2      -1.0
*CONSTRAINED_LINEAR_GLOBAL
        34
       367         3       1.0
      1326         3      -1.0
*CONSTRAINED_LINEAR_GLOBAL
        35
       368         2       1.0
      1325         2      -1.0
*CONSTRAINED_LINEAR_GLOBAL
        36
       368         3       1.0
      1325         3      -1.0
*CONSTRAINED_LINEAR_GLOBAL
        37
       378         2       1.0
      1315         2      -1.0
*CONSTRAINED_LINEAR_GLOBAL
        38
       378         3       1.0
      1315         3      -1.0
*CONSTRAINED_LINEAR_GLOBAL
        39
       397         2       1.0
      1296         2      -1.0
*CONSTRAINED_LINEAR_GLOBAL
        40
       397         3       1.0
      1296         3      -1.0
*CONSTRAINED_LINEAR_GLOBAL
        41
       398         2       1.0
      1295         2      -1.0
*CONSTRAINED_LINEAR_GLOBAL
        42
       398         3       1.0
      1295         3      -1.0
*CONSTRAINED_LINEAR_GLOBAL
        43
       408         2       1.0
      1285         2      -1.0
*CONSTRAINED_LINEAR_GLOBAL
        44
       408         3       1.0
      1285         3      -1.0
*CONSTRAINED_LINEAR_GLOBAL
        45
       446         2       1.0
      1247         2      -1.0
*CONSTRAINED_LINEAR_GLOBAL
        46
       446         3       1.0
      1247         3      -1.0
*CONSTRAINED_LINEAR_GLOBAL
        47
       447         2       1.0
      1246         2      -1.0
*CONSTRAINED_LINEAR_GLOBAL
        48
       447         3       1.0
      1246         3      -1.0
*CONSTRAINED_LINEAR_GLOBAL
        49
       467         2       1.0
      1226         2      -1.0
*CONSTRAINED_LINEAR_GLOBAL
        50
       467         3       1.0
      1226         3      -1.0
*CONSTRAINED_LINEAR_GLOBAL
        51
      2397         2       1.0
      3568         2      -1.0
*CONSTRAINED_LINEAR_GLOBAL
        52
      2397         3       1.0
      3568         3      -1.0
*CONSTRAINED_LINEAR_GLOBAL
        53
      2418         2       1.0
      3589         2      -1.0
*CONSTRAINED_LINEAR_GLOBAL
        54
      2418         3       1.0
      3589         3      -1.0
*CONSTRAINED_LINEAR_GLOBAL
        55
      2456         2       1.0
      3627         2      -1.0
*CONSTRAINED_LINEAR_GLOBAL
        56
      2456         3       1.0
      3627         3      -1.0
*CONSTRAINED_LINEAR_GLOBAL
        57
      2466         2       1.0
      3637         2      -1.0
*CONSTRAINED_LINEAR_GLOBAL
        58
      2466         3       1.0
      3637         3      -1.0
*CONSTRAINED_LINEAR_GLOBAL
        59
      2486         2       1.0
      3657         2      -1.0
*CONSTRAINED_LINEAR_GLOBAL
        60
      2486         3       1.0
      3657         3      -1.0
*CONSTRAINED_LINEAR_GLOBAL
        61
      2496         2       1.0
      3667         2      -1.0
*CONSTRAINED_LINEAR_GLOBAL
        62
      2496         3       1.0
      3667         3      -1.0
*CONSTRAINED_LINEAR_GLOBAL
        63
      2497         2       1.0
      3668         2      -1.0
*CONSTRAINED_LINEAR_GLOBAL
        64
      2497         3       1.0
      3668         3      -1.0
*CONSTRAINED_LINEAR_GLOBAL
        65
      2517         2       1.0
      3688         2      -1.0
*CONSTRAINED_LINEAR_GLOBAL
        66
      2517         3       1.0
      3688         3      -1.0
*CONSTRAINED_LINEAR_GLOBAL
        67
      2538         2       1.0
      3709         2      -1.0
*CONSTRAINED_LINEAR_GLOBAL
        68
      2538         3       1.0
      3709         3      -1.0
*CONSTRAINED_LINEAR_GLOBAL
        69
      2539         2       1.0
      3710         2      -1.0
*CONSTRAINED_LINEAR_GLOBAL
        70
      2539         3       1.0
      3710         3      -1.0
*CONSTRAINED_LINEAR_GLOBAL
        71
      2597         2       1.0
      3768         2      -1.0
*CONSTRAINED_LINEAR_GLOBAL
        72
      2597         3       1.0
      3768         3      -1.0
*CONSTRAINED_LINEAR_GLOBAL
        73
      2598         2       1.0
      3769         2      -1.0
*CONSTRAINED_LINEAR_GLOBAL
        74
      2598         3       1.0
      3769         3      -1.0
*CONSTRAINED_LINEAR_GLOBAL
        75
      2646         2       1.0
      3817         2      -1.0
*CONSTRAINED_LINEAR_GLOBAL
        76
      2646         3       1.0
      3817         3      -1.0
*CONSTRAINED_LINEAR_GLOBAL
        77
      2647         2       1.0
      3818         2      -1.0
*CONSTRAINED_LINEAR_GLOBAL
        78
      2647         3       1.0
      3818         3      -1.0
*CONSTRAINED_LINEAR_GLOBAL
        79
      2696         2       1.0
      3867         2      -1.0
*CONSTRAINED_LINEAR_GLOBAL
        80
      2696         3       1.0
      3867         3      -1.0
*CONSTRAINED_LINEAR_GLOBAL
        81
      2697         2       1.0
      3868         2      -1.0
*CONSTRAINED_LINEAR_GLOBAL
        82
      2697         3       1.0
      3868         3      -1.0
*CONSTRAINED_LINEAR_GLOBAL
        83
      2716         2       1.0
      3887         2      -1.0
*CONSTRAINED_LINEAR_GLOBAL
        84
      2716         3       1.0
      3887         3      -1.0
*CONSTRAINED_LINEAR_GLOBAL
        85
      2717         2       1.0
      3888         2      -1.0
*CONSTRAINED_LINEAR_GLOBAL
        86
      2717         3       1.0
      3888         3      -1.0
*CONSTRAINED_LINEAR_GLOBAL
        87
      2718         2       1.0
      3889         2      -1.0
*CONSTRAINED_LINEAR_GLOBAL
        88
      2718         3       1.0
      3889         3      -1.0
*CONSTRAINED_LINEAR_GLOBAL
        89
      2719         2       1.0
      3890         2      -1.0
*CONSTRAINED_LINEAR_GLOBAL
        90
      2719         3       1.0
      3890         3      -1.0
*CONSTRAINED_LINEAR_GLOBAL
        91
      4739         2       1.0
      5910         2      -1.0
*CONSTRAINED_LINEAR_GLOBAL
        92
      4739         3       1.0
      5910         3      -1.0
*CONSTRAINED_LINEAR_GLOBAL
        93
      4759         2       1.0
      5930         2      -1.0
*CONSTRAINED_LINEAR_GLOBAL
        94
      4759         3       1.0
      5930         3      -1.0
*CONSTRAINED_LINEAR_GLOBAL
        95
      4760         2       1.0
      5931         2      -1.0
*CONSTRAINED_LINEAR_GLOBAL
        96
      4760         3       1.0
      5931         3      -1.0
*CONSTRAINED_LINEAR_GLOBAL
        97
      4798         2       1.0
      5969         2      -1.0
*CONSTRAINED_LINEAR_GLOBAL
        98
      4798         3       1.0
      5969         3      -1.0
*CONSTRAINED_LINEAR_GLOBAL
        99
      4808         2       1.0
      5979         2      -1.0
*CONSTRAINED_LINEAR_GLOBAL
       100
      4808         3       1.0
      5979         3      -1.0
*CONSTRAINED_LINEAR_GLOBAL
       101
      4809         2       1.0
      5980         2      -1.0
*CONSTRAINED_LINEAR_GLOBAL
       102
      4809         3       1.0
      5980         3      -1.0
*CONSTRAINED_LINEAR_GLOBAL
       103
      4838         2       1.0
      6009         2      -1.0
*CONSTRAINED_LINEAR_GLOBAL
       104
      4838         3       1.0
      6009         3      -1.0
*CONSTRAINED_LINEAR_GLOBAL
       105
      4839         2       1.0
      6010         2      -1.0
*CONSTRAINED_LINEAR_GLOBAL
       106
      4839         3       1.0
      6010         3      -1.0
*CONSTRAINED_LINEAR_GLOBAL
       107
      4878         2       1.0
      6049         2      -1.0
*CONSTRAINED_LINEAR_GLOBAL
       108
      4878         3       1.0
      6049         3      -1.0
*CONSTRAINED_LINEAR_GLOBAL
       109
      4879         2       1.0
      6050         2      -1.0
*CONSTRAINED_LINEAR_GLOBAL
       110
      4879         3       1.0
      6050         3      -1.0
*CONSTRAINED_LINEAR_GLOBAL
       111
      4880         2       1.0
      6051         2      -1.0
*CONSTRAINED_LINEAR_GLOBAL
       112
      4880         3       1.0
      6051         3      -1.0
*CONSTRAINED_LINEAR_GLOBAL
       113
      4881         2       1.0
      6052         2      -1.0
*CONSTRAINED_LINEAR_GLOBAL
       114
      4881         3       1.0
      6052         3      -1.0
*CONSTRAINED_LINEAR_GLOBAL
       115
      4939         2       1.0
      6110         2      -1.0
*CONSTRAINED_LINEAR_GLOBAL
       116
      4939         3       1.0
      6110         3      -1.0
*CONSTRAINED_LINEAR_GLOBAL
       117
      4940         2       1.0
      6111         2      -1.0
*CONSTRAINED_LINEAR_GLOBAL
       118
      4940         3       1.0
      6111         3      -1.0
*CONSTRAINED_LINEAR_GLOBAL
       119
      4988         2       1.0
      6159         2      -1.0
*CONSTRAINED_LINEAR_GLOBAL
       120
      4988         3       1.0
      6159         3      -1.0
*CONSTRAINED_LINEAR_GLOBAL
       121
      4989         2       1.0
      6160         2      -1.0
*CONSTRAINED_LINEAR_GLOBAL
       122
      4989         3       1.0
      6160         3      -1.0
*CONSTRAINED_LINEAR_GLOBAL
       123
      5058         2       1.0
      6229         2      -1.0
*CONSTRAINED_LINEAR_GLOBAL
       124
      5058         3       1.0
      6229         3      -1.0
*CONSTRAINED_LINEAR_GLOBAL
       125
      5059         2       1.0
      6230         2      -1.0
*CONSTRAINED_LINEAR_GLOBAL
       126
      5059         3       1.0
      6230         3      -1.0
*CONSTRAINED_LINEAR_GLOBAL
       127
      5060         2       1.0
      6231         2      -1.0
*CONSTRAINED_LINEAR_GLOBAL
       128
      5060         3       1.0
      6231         3      -1.0
*CONSTRAINED_LINEAR_GLOBAL
       129
      5061         2       1.0
      6232         2      -1.0
*CONSTRAINED_LINEAR_GLOBAL
       130
      5061         3       1.0
      6232         3      -1.0
*CONSTRAINED_LINEAR_GLOBAL
       131
      7081         2       1.0
      8252         2      -1.0
*CONSTRAINED_LINEAR_GLOBAL
       132
      7081         3       1.0
      8252         3      -1.0
*CONSTRAINED_LINEAR_GLOBAL
       133
      7102         2       1.0
      8273         2      -1.0
*CONSTRAINED_LINEAR_GLOBAL
       134
      7102         3       1.0
      8273         3      -1.0
*CONSTRAINED_LINEAR_GLOBAL
       135
      7140         2       1.0
      8311         2      -1.0
*CONSTRAINED_LINEAR_GLOBAL
       136
      7140         3       1.0
      8311         3      -1.0
*CONSTRAINED_LINEAR_GLOBAL
       137
      7150         2       1.0
      8321         2      -1.0
*CONSTRAINED_LINEAR_GLOBAL
       138
      7150         3       1.0
      8321         3      -1.0
*CONSTRAINED_LINEAR_GLOBAL
       139
      7180         2       1.0
      8351         2      -1.0
*CONSTRAINED_LINEAR_GLOBAL
       140
      7180         3       1.0
      8351         3      -1.0
*CONSTRAINED_LINEAR_GLOBAL
       141
      7181         2       1.0
      8352         2      -1.0
*CONSTRAINED_LINEAR_GLOBAL
       142
      7181         3       1.0
      8352         3      -1.0
*CONSTRAINED_LINEAR_GLOBAL
       143
      7222         2       1.0
      8393         2      -1.0
*CONSTRAINED_LINEAR_GLOBAL
       144
      7222         3       1.0
      8393         3      -1.0
*CONSTRAINED_LINEAR_GLOBAL
       145
      7223         2       1.0
      8394         2      -1.0
*CONSTRAINED_LINEAR_GLOBAL
       146
      7223         3       1.0
      8394         3      -1.0
*CONSTRAINED_LINEAR_GLOBAL
       147
      7281         2       1.0
      8452         2      -1.0
*CONSTRAINED_LINEAR_GLOBAL
       148
      7281         3       1.0
      8452         3      -1.0
*CONSTRAINED_LINEAR_GLOBAL
       149
      7282         2       1.0
      8453         2      -1.0
*CONSTRAINED_LINEAR_GLOBAL
       150
      7282         3       1.0
      8453         3      -1.0
*CONSTRAINED_LINEAR_GLOBAL
       151
      7330         2       1.0
      8501         2      -1.0
*CONSTRAINED_LINEAR_GLOBAL
       152
      7330         3       1.0
      8501         3      -1.0
*CONSTRAINED_LINEAR_GLOBAL
       153
      7331         2       1.0
      8502         2      -1.0
*CONSTRAINED_LINEAR_GLOBAL
       154
      7331         3       1.0
      8502         3      -1.0
*CONSTRAINED_LINEAR_GLOBAL
       155
      7400         2       1.0
      8571         2      -1.0
*CONSTRAINED_LINEAR_GLOBAL
       156
      7400         3       1.0
      8571         3      -1.0
*CONSTRAINED_LINEAR_GLOBAL
       157
      7401         2       1.0
      8572         2      -1.0
*CONSTRAINED_LINEAR_GLOBAL
       158
      7401         3       1.0
      8572         3      -1.0
*CONSTRAINED_LINEAR_GLOBAL
       159
      7402         2       1.0
      8573         2      -1.0
*CONSTRAINED_LINEAR_GLOBAL
       160
      7402         3       1.0
      8573         3      -1.0
*CONSTRAINED_LINEAR_GLOBAL
       161
      7403         2       1.0
      8574         2      -1.0
*CONSTRAINED_LINEAR_GLOBAL
       162
      7403         3       1.0
      8574         3      -1.0
*CONSTRAINED_LINEAR_GLOBAL
         1
      3207         1       1.0
       865         1      -1.0
*CONSTRAINED_LINEAR_GLOBAL
         2
      3207         2       1.0
       865         2      -1.0
*CONSTRAINED_LINEAR_GLOBAL
         3
      3207         3       1.0
       865         3      -1.0
*CONSTRAINED_LINEAR_GLOBAL
         4
      3208         1       1.0
       866         1      -1.0
*CONSTRAINED_LINEAR_GLOBAL
         5
      3208         2       1.0
       866         2      -1.0
*CONSTRAINED_LINEAR_GLOBAL
         6
      3208         3       1.0
       866         3      -1.0
*CONSTRAINED_LINEAR_GLOBAL
         7
      3209         1       1.0
       867         1      -1.0
*CONSTRAINED_LINEAR_GLOBAL
         8
      3209         2       1.0
       867         2      -1.0
*CONSTRAINED_LINEAR_GLOBAL
         9
      3209         3       1.0
       867         3      -1.0
*CONSTRAINED_LINEAR_GLOBAL
        10
      3210         1       1.0
       868         1      -1.0
*CONSTRAINED_LINEAR_GLOBAL
        11
      3210         2       1.0
       868         2      -1.0
*CONSTRAINED_LINEAR_GLOBAL
        12
      3210         3       1.0
       868         3      -1.0
*CONSTRAINED_LINEAR_GLOBAL
        13
      3229         1       1.0
       887         1      -1.0
*CONSTRAINED_LINEAR_GLOBAL
        14
      3229         2       1.0
       887         2      -1.0
*CONSTRAINED_LINEAR_GLOBAL
        15
      3229         3       1.0
       887         3      -1.0
*CONSTRAINED_LINEAR_GLOBAL
        16
      3230         1       1.0
       888         1      -1.0
*CONSTRAINED_LINEAR_GLOBAL
        17
      3230         2       1.0
       888         2      -1.0
*CONSTRAINED_LINEAR_GLOBAL
        18
      3230         3       1.0
       888         3      -1.0
*CONSTRAINED_LINEAR_GLOBAL
        19
      3249         1       1.0
       907         1      -1.0
*CONSTRAINED_LINEAR_GLOBAL
        20
      3249         2       1.0
       907         2      -1.0
*CONSTRAINED_LINEAR_GLOBAL
        21
      3249         3       1.0
       907         3      -1.0
*CONSTRAINED_LINEAR_GLOBAL
        22
      3250         1       1.0
       908         1      -1.0
*CONSTRAINED_LINEAR_GLOBAL
        23
      3250         2       1.0
       908         2      -1.0
*CONSTRAINED_LINEAR_GLOBAL
        24
      3250         3       1.0
       908         3      -1.0
*CONSTRAINED_LINEAR_GLOBAL
        25
      3260         1       1.0
       918         1      -1.0
*CONSTRAINED_LINEAR_GLOBAL
        26
      3260         2       1.0
       918         2      -1.0
*CONSTRAINED_LINEAR_GLOBAL
        27
      3260         3       1.0
       918         3      -1.0
*CONSTRAINED_LINEAR_GLOBAL
        28
      3279         1       1.0
       937         1      -1.0
*CONSTRAINED_LINEAR_GLOBAL
        29
      3279         2       1.0
       937         2      -1.0
*CONSTRAINED_LINEAR_GLOBAL
        30
      3279         3       1.0
       937         3      -1.0
*CONSTRAINED_LINEAR_GLOBAL
        31
      3280         1       1.0
       938         1      -1.0
*CONSTRAINED_LINEAR_GLOBAL
        32
      3280         2       1.0
       938         2      -1.0
*CONSTRAINED_LINEAR_GLOBAL
        33
      3280         3       1.0
       938         3      -1.0
*CONSTRAINED_LINEAR_GLOBAL
        34
      3290         1       1.0
       948         1      -1.0
*CONSTRAINED_LINEAR_GLOBAL
        35
      3290         2       1.0
       948         2      -1.0
*CONSTRAINED_LINEAR_GLOBAL
        36
      3290         3       1.0
       948         3      -1.0
*CONSTRAINED_LINEAR_GLOBAL
        37
      3309         1       1.0
       967         1      -1.0
*CONSTRAINED_LINEAR_GLOBAL
        38
      3309         2       1.0
       967         2      -1.0
*CONSTRAINED_LINEAR_GLOBAL
        39
      3309         3       1.0
       967         3      -1.0
*CONSTRAINED_LINEAR_GLOBAL
        40
      3310         1       1.0
       968         1      -1.0
*CONSTRAINED_LINEAR_GLOBAL
        41
      3310         2       1.0
       968         2      -1.0
*CONSTRAINED_LINEAR_GLOBAL
        42
      3310         3       1.0
       968         3      -1.0
*CONSTRAINED_LINEAR_GLOBAL
        43
      3320         1       1.0
       978         1      -1.0
*CONSTRAINED_LINEAR_GLOBAL
        44
      3320         2       1.0
       978         2      -1.0
*CONSTRAINED_LINEAR_GLOBAL
        45
      3320         3       1.0
       978         3      -1.0
*CONSTRAINED_LINEAR_GLOBAL
        46
      3388         1       1.0
      1046         1      -1.0
*CONSTRAINED_LINEAR_GLOBAL
        47
      3388         2       1.0
      1046         2      -1.0
*CONSTRAINED_LINEAR_GLOBAL
        48
      3388         3       1.0
      1046         3      -1.0
*CONSTRAINED_LINEAR_GLOBAL
        49
      3389         1       1.0
      1047         1      -1.0
*CONSTRAINED_LINEAR_GLOBAL
        50
      3389         2       1.0
      1047         2      -1.0
*CONSTRAINED_LINEAR_GLOBAL
        51
      3389         3       1.0
      1047         3      -1.0
*CONSTRAINED_LINEAR_GLOBAL
        52
      3409         1       1.0
      1067         1      -1.0
*CONSTRAINED_LINEAR_GLOBAL
        53
      3409         2       1.0
      1067         2      -1.0
*CONSTRAINED_LINEAR_GLOBAL
        54
      3409         3       1.0
      1067         3      -1.0
*CONSTRAINED_LINEAR_GLOBAL
        55
      3429         1       1.0
      1087         1      -1.0
*CONSTRAINED_LINEAR_GLOBAL
        56
      3429         2       1.0
      1087         2      -1.0
*CONSTRAINED_LINEAR_GLOBAL
        57
      3429         3       1.0
      1087         3      -1.0
*CONSTRAINED_LINEAR_GLOBAL
        58
      3430         1       1.0
      1088         1      -1.0
*CONSTRAINED_LINEAR_GLOBAL
        59
      3430         2       1.0
      1088         2      -1.0
*CONSTRAINED_LINEAR_GLOBAL
        60
      3430         3       1.0
      1088         3      -1.0
*CONSTRAINED_LINEAR_GLOBAL
        61
      3440         1       1.0
      1098         1      -1.0
*CONSTRAINED_LINEAR_GLOBAL
        62
      3440         2       1.0
      1098         2      -1.0
*CONSTRAINED_LINEAR_GLOBAL
        63
      3440         3       1.0
      1098         3      -1.0
*CONSTRAINED_LINEAR_GLOBAL
        64
      3479         1       1.0
      1137         1      -1.0
*CONSTRAINED_LINEAR_GLOBAL
        65
      3479         2       1.0
      1137         2      -1.0
*CONSTRAINED_LINEAR_GLOBAL
        66
      3479         3       1.0
      1137         3      -1.0
*CONSTRAINED_LINEAR_GLOBAL
        67
      3499         1       1.0
      1157         1      -1.0
*CONSTRAINED_LINEAR_GLOBAL
        68
      3499         2       1.0
      1157         2      -1.0
*CONSTRAINED_LINEAR_GLOBAL
        69
      3499         3       1.0
      1157         3      -1.0
*CONSTRAINED_LINEAR_GLOBAL
        70
      3519         1       1.0
      1177         1      -1.0
*CONSTRAINED_LINEAR_GLOBAL
        71
      3519         2       1.0
      1177         2      -1.0
*CONSTRAINED_LINEAR_GLOBAL
        72
      3519         3       1.0
      1177         3      -1.0
*CONSTRAINED_LINEAR_GLOBAL
        73
      3530         1       1.0
      1188         1      -1.0
*CONSTRAINED_LINEAR_GLOBAL
        74
      3530         2       1.0
      1188         2      -1.0
*CONSTRAINED_LINEAR_GLOBAL
        75
      3530         3       1.0
      1188         3      -1.0
*CONSTRAINED_LINEAR_GLOBAL
        76
      4378         1       1.0
      2036         1      -1.0
*CONSTRAINED_LINEAR_GLOBAL
        77
      4378         2       1.0
      2036         2      -1.0
*CONSTRAINED_LINEAR_GLOBAL
        78
      4378         3       1.0
      2036         3      -1.0
*CONSTRAINED_LINEAR_GLOBAL
        79
      4379         1       1.0
      2037         1      -1.0
*CONSTRAINED_LINEAR_GLOBAL
        80
      4379         2       1.0
      2037         2      -1.0
*CONSTRAINED_LINEAR_GLOBAL
        81
      4379         3       1.0
      2037         3      -1.0
*CONSTRAINED_LINEAR_GLOBAL
        82
      4380         1       1.0
      2038         1      -1.0
*CONSTRAINED_LINEAR_GLOBAL
        83
      4380         2       1.0
      2038         2      -1.0
*CONSTRAINED_LINEAR_GLOBAL
        84
      4380         3       1.0
      2038         3      -1.0
*CONSTRAINED_LINEAR_GLOBAL
        85
      4381         1       1.0
      2039         1      -1.0
*CONSTRAINED_LINEAR_GLOBAL
        86
      4381         2       1.0
      2039         2      -1.0
*CONSTRAINED_LINEAR_GLOBAL
        87
      4381         3       1.0
      2039         3      -1.0
*CONSTRAINED_LINEAR_GLOBAL
        88
      4400         1       1.0
      2058         1      -1.0
*CONSTRAINED_LINEAR_GLOBAL
        89
      4400         2       1.0
      2058         2      -1.0
*CONSTRAINED_LINEAR_GLOBAL
        90
      4400         3       1.0
      2058         3      -1.0
*CONSTRAINED_LINEAR_GLOBAL
        91
      4401         1       1.0
      2059         1      -1.0
*CONSTRAINED_LINEAR_GLOBAL
        92
      4401         2       1.0
      2059         2      -1.0
*CONSTRAINED_LINEAR_GLOBAL
        93
      4401         3       1.0
      2059         3      -1.0
*CONSTRAINED_LINEAR_GLOBAL
        94
      4450         1       1.0
      2108         1      -1.0
*CONSTRAINED_LINEAR_GLOBAL
        95
      4450         2       1.0
      2108         2      -1.0
*CONSTRAINED_LINEAR_GLOBAL
        96
      4450         3       1.0
      2108         3      -1.0
*CONSTRAINED_LINEAR_GLOBAL
        97
      4451         1       1.0
      2109         1      -1.0
*CONSTRAINED_LINEAR_GLOBAL
        98
      4451         2       1.0
      2109         2      -1.0
*CONSTRAINED_LINEAR_GLOBAL
        99
      4451         3       1.0
      2109         3      -1.0
*CONSTRAINED_LINEAR_GLOBAL
       100
      4480         1       1.0
      2138         1      -1.0
*CONSTRAINED_LINEAR_GLOBAL
       101
      4480         2       1.0
      2138         2      -1.0
*CONSTRAINED_LINEAR_GLOBAL
       102
      4480         3       1.0
      2138         3      -1.0
*CONSTRAINED_LINEAR_GLOBAL
       103
      4481         1       1.0
      2139         1      -1.0
*CONSTRAINED_LINEAR_GLOBAL
       104
      4481         2       1.0
      2139         2      -1.0
*CONSTRAINED_LINEAR_GLOBAL
       105
      4481         3       1.0
      2139         3      -1.0
*CONSTRAINED_LINEAR_GLOBAL
       106
      4559         1       1.0
      2217         1      -1.0
*CONSTRAINED_LINEAR_GLOBAL
       107
      4559         2       1.0
      2217         2      -1.0
*CONSTRAINED_LINEAR_GLOBAL
       108
      4559         3       1.0
      2217         3      -1.0
*CONSTRAINED_LINEAR_GLOBAL
       109
      4560         1       1.0
      2218         1      -1.0
*CONSTRAINED_LINEAR_GLOBAL
       110
      4560         2       1.0
      2218         2      -1.0
*CONSTRAINED_LINEAR_GLOBAL
       111
      4560         3       1.0
      2218         3      -1.0
*CONSTRAINED_LINEAR_GLOBAL
       112
      4580         1       1.0
      2238         1      -1.0
*CONSTRAINED_LINEAR_GLOBAL
       113
      4580         2       1.0
      2238         2      -1.0
*CONSTRAINED_LINEAR_GLOBAL
       114
      4580         3       1.0
      2238         3      -1.0
*CONSTRAINED_LINEAR_GLOBAL
       115
      4600         1       1.0
      2258         1      -1.0
*CONSTRAINED_LINEAR_GLOBAL
       116
      4600         2       1.0
      2258         2      -1.0
*CONSTRAINED_LINEAR_GLOBAL
       117
      4600         3       1.0
      2258         3      -1.0
*CONSTRAINED_LINEAR_GLOBAL
       118
      4601         1       1.0
      2259         1      -1.0
*CONSTRAINED_LINEAR_GLOBAL
       119
      4601         2       1.0
      2259         2      -1.0
*CONSTRAINED_LINEAR_GLOBAL
       120
      4601         3       1.0
      2259         3      -1.0
*CONSTRAINED_LINEAR_GLOBAL
       121
      4611         1       1.0
      2269         1      -1.0
*CONSTRAINED_LINEAR_GLOBAL
       122
      4611         2       1.0
      2269         2      -1.0
*CONSTRAINED_LINEAR_GLOBAL
       123
      4611         3       1.0
      2269         3      -1.0
*CONSTRAINED_LINEAR_GLOBAL
       124
      4650         1       1.0
      2308         1      -1.0
*CONSTRAINED_LINEAR_GLOBAL
       125
      4650         2       1.0
      2308         2      -1.0
*CONSTRAINED_LINEAR_GLOBAL
       126
      4650         3       1.0
      2308         3      -1.0
*CONSTRAINED_LINEAR_GLOBAL
       127
      4670         1       1.0
      2328         1      -1.0
*CONSTRAINED_LINEAR_GLOBAL
       128
      4670         2       1.0
      2328         2      -1.0
*CONSTRAINED_LINEAR_GLOBAL
       129
      4670         3       1.0
      2328         3      -1.0
*CONSTRAINED_LINEAR_GLOBAL
       130
      4690         1       1.0
      2348         1      -1.0
*CONSTRAINED_LINEAR_GLOBAL
       131
      4690         2       1.0
      2348         2      -1.0
*CONSTRAINED_LINEAR_GLOBAL
       132
      4690         3       1.0
      2348         3      -1.0
*CONSTRAINED_LINEAR_GLOBAL
       133
      4701         1       1.0
      2359         1      -1.0
*CONSTRAINED_LINEAR_GLOBAL
       134
      4701         2       1.0
      2359         2      -1.0
*CONSTRAINED_LINEAR_GLOBAL
       135
      4701         3       1.0
      2359         3      -1.0
*CONSTRAINED_LINEAR_GLOBAL
       136
      7891         1       1.0
      5549         1      -1.0
*CONSTRAINED_LINEAR_GLOBAL
       137
      7891         2       1.0
      5549         2      -1.0
*CONSTRAINED_LINEAR_GLOBAL
       138
      7891         3       1.0
      5549         3      -1.0
*CONSTRAINED_LINEAR_GLOBAL
       139
      7892         1       1.0
      5550         1      -1.0
*CONSTRAINED_LINEAR_GLOBAL
       140
      7892         2       1.0
      5550         2      -1.0
*CONSTRAINED_LINEAR_GLOBAL
       141
      7892         3       1.0
      5550         3      -1.0
*CONSTRAINED_LINEAR_GLOBAL
       142
      7893         1       1.0
      5551         1      -1.0
*CONSTRAINED_LINEAR_GLOBAL
       143
      7893         2       1.0
      5551         2      -1.0
*CONSTRAINED_LINEAR_GLOBAL
       144
      7893         3       1.0
      5551         3      -1.0
*CONSTRAINED_LINEAR_GLOBAL
       145
      7894         1       1.0
      5552         1      -1.0
*CONSTRAINED_LINEAR_GLOBAL
       146
      7894         2       1.0
      5552         2      -1.0
*CONSTRAINED_LINEAR_GLOBAL
       147
      7894         3       1.0
      5552         3      -1.0
*CONSTRAINED_LINEAR_GLOBAL
       148
      7933         1       1.0
      5591         1      -1.0
*CONSTRAINED_LINEAR_GLOBAL
       149
      7933         2       1.0
      5591         2      -1.0
*CONSTRAINED_LINEAR_GLOBAL
       150
      7933         3       1.0
      5591         3      -1.0
*CONSTRAINED_LINEAR_GLOBAL
       151
      7934         1       1.0
      5592         1      -1.0
*CONSTRAINED_LINEAR_GLOBAL
       152
      7934         2       1.0
      5592         2      -1.0
*CONSTRAINED_LINEAR_GLOBAL
       153
      7934         3       1.0
      5592         3      -1.0
*CONSTRAINED_LINEAR_GLOBAL
       154
      7963         1       1.0
      5621         1      -1.0
*CONSTRAINED_LINEAR_GLOBAL
       155
      7963         2       1.0
      5621         2      -1.0
*CONSTRAINED_LINEAR_GLOBAL
       156
      7963         3       1.0
      5621         3      -1.0
*CONSTRAINED_LINEAR_GLOBAL
       157
      7964         1       1.0
      5622         1      -1.0
*CONSTRAINED_LINEAR_GLOBAL
       158
      7964         2       1.0
      5622         2      -1.0
*CONSTRAINED_LINEAR_GLOBAL
       159
      7964         3       1.0
      5622         3      -1.0
*CONSTRAINED_LINEAR_GLOBAL
       160
      7974         1       1.0
      5632         1      -1.0
*CONSTRAINED_LINEAR_GLOBAL
       161
      7974         2       1.0
      5632         2      -1.0
*CONSTRAINED_LINEAR_GLOBAL
       162
      7974         3       1.0
      5632         3      -1.0
*CONSTRAINED_LINEAR_GLOBAL
       163
      7993         1       1.0
      5651         1      -1.0
*CONSTRAINED_LINEAR_GLOBAL
       164
      7993         2       1.0
      5651         2      -1.0
*CONSTRAINED_LINEAR_GLOBAL
       165
      7993         3       1.0
      5651         3      -1.0
*CONSTRAINED_LINEAR_GLOBAL
       166
      7994         1       1.0
      5652         1      -1.0
*CONSTRAINED_LINEAR_GLOBAL
       167
      7994         2       1.0
      5652         2      -1.0
*CONSTRAINED_LINEAR_GLOBAL
       168
      7994         3       1.0
      5652         3      -1.0
*CONSTRAINED_LINEAR_GLOBAL
       169
      8004         1       1.0
      5662         1      -1.0
*CONSTRAINED_LINEAR_GLOBAL
       170
      8004         2       1.0
      5662         2      -1.0
*CONSTRAINED_LINEAR_GLOBAL
       171
      8004         3       1.0
      5662         3      -1.0
*CONSTRAINED_LINEAR_GLOBAL
       172
      8072         1       1.0
      5730         1      -1.0
*CONSTRAINED_LINEAR_GLOBAL
       173
      8072         2       1.0
      5730         2      -1.0
*CONSTRAINED_LINEAR_GLOBAL
       174
      8072         3       1.0
      5730         3      -1.0
*CONSTRAINED_LINEAR_GLOBAL
       175
      8073         1       1.0
      5731         1      -1.0
*CONSTRAINED_LINEAR_GLOBAL
       176
      8073         2       1.0
      5731         2      -1.0
*CONSTRAINED_LINEAR_GLOBAL
       177
      8073         3       1.0
      5731         3      -1.0
*CONSTRAINED_LINEAR_GLOBAL
       178
      8113         1       1.0
      5771         1      -1.0
*CONSTRAINED_LINEAR_GLOBAL
       179
      8113         2       1.0
      5771         2      -1.0
*CONSTRAINED_LINEAR_GLOBAL
       180
      8113         3       1.0
      5771         3      -1.0
*CONSTRAINED_LINEAR_GLOBAL
       181
      8114         1       1.0
      5772         1      -1.0
*CONSTRAINED_LINEAR_GLOBAL
       182
      8114         2       1.0
      5772         2      -1.0
*CONSTRAINED_LINEAR_GLOBAL
       183
      8114         3       1.0
      5772         3      -1.0
*CONSTRAINED_LINEAR_GLOBAL
       184
      8163         1       1.0
      5821         1      -1.0
*CONSTRAINED_LINEAR_GLOBAL
       185
      8163         2       1.0
      5821         2      -1.0
*CONSTRAINED_LINEAR_GLOBAL
       186
      8163         3       1.0
      5821         3      -1.0
*CONSTRAINED_LINEAR_GLOBAL
       187
      8183         1       1.0
      5841         1      -1.0
*CONSTRAINED_LINEAR_GLOBAL
       188
      8183         2       1.0
      5841         2      -1.0
*CONSTRAINED_LINEAR_GLOBAL
       189
      8183         3       1.0
      5841         3      -1.0
*CONSTRAINED_LINEAR_GLOBAL
       190
      8203         1       1.0
      5861         1      -1.0
*CONSTRAINED_LINEAR_GLOBAL
       191
      8203         2       1.0
      5861         2      -1.0
*CONSTRAINED_LINEAR_GLOBAL
       192
      8203         3       1.0
      5861         3      -1.0
*CONSTRAINED_LINEAR_GLOBAL
       193
      8214         1       1.0
      5872         1      -1.0
*CONSTRAINED_LINEAR_GLOBAL
       194
      8214         2       1.0
      5872         2      -1.0
*CONSTRAINED_LINEAR_GLOBAL
       195
      8214         3       1.0
      5872         3      -1.0
*CONSTRAINED_LINEAR_GLOBAL
       196
      9062         1       1.0
      6720         1      -1.0
*CONSTRAINED_LINEAR_GLOBAL
       197
      9062         2       1.0
      6720         2      -1.0
*CONSTRAINED_LINEAR_GLOBAL
       198
      9062         3       1.0
      6720         3      -1.0
*CONSTRAINED_LINEAR_GLOBAL
       199
      9063         1       1.0
      6721         1      -1.0
*CONSTRAINED_LINEAR_GLOBAL
       200
      9063         2       1.0
      6721         2      -1.0
*CONSTRAINED_LINEAR_GLOBAL
       201
      9063         3       1.0
      6721         3      -1.0
*CONSTRAINED_LINEAR_GLOBAL
       202
      9064         1       1.0
      6722         1      -1.0
*CONSTRAINED_LINEAR_GLOBAL
       203
      9064         2       1.0
      6722         2      -1.0
*CONSTRAINED_LINEAR_GLOBAL
       204
      9064         3       1.0
      6722         3      -1.0
*CONSTRAINED_LINEAR_GLOBAL
       205
      9065         1       1.0
      6723         1      -1.0
*CONSTRAINED_LINEAR_GLOBAL
       206
      9065         2       1.0
      6723         2      -1.0
*CONSTRAINED_LINEAR_GLOBAL
       207
      9065         3       1.0
      6723         3      -1.0
*CONSTRAINED_LINEAR_GLOBAL
       208
      9134         1       1.0
      6792         1      -1.0
*CONSTRAINED_LINEAR_GLOBAL
       209
      9134         2       1.0
      6792         2      -1.0
*CONSTRAINED_LINEAR_GLOBAL
       210
      9134         3       1.0
      6792         3      -1.0
*CONSTRAINED_LINEAR_GLOBAL
       211
      9135         1       1.0
      6793         1      -1.0
*CONSTRAINED_LINEAR_GLOBAL
       212
      9135         2       1.0
      6793         2      -1.0
*CONSTRAINED_LINEAR_GLOBAL
       213
      9135         3       1.0
      6793         3      -1.0
*CONSTRAINED_LINEAR_GLOBAL
       214
      9164         1       1.0
      6822         1      -1.0
*CONSTRAINED_LINEAR_GLOBAL
       215
      9164         2       1.0
      6822         2      -1.0
*CONSTRAINED_LINEAR_GLOBAL
       216
      9164         3       1.0
      6822         3      -1.0
*CONSTRAINED_LINEAR_GLOBAL
       217
      9165         1       1.0
      6823         1      -1.0
*CONSTRAINED_LINEAR_GLOBAL
       218
      9165         2       1.0
      6823         2      -1.0
*CONSTRAINED_LINEAR_GLOBAL
       219
      9165         3       1.0
      6823         3      -1.0
*CONSTRAINED_LINEAR_GLOBAL
       220
      9243         1       1.0
      6901         1      -1.0
*CONSTRAINED_LINEAR_GLOBAL
       221
      9243         2       1.0
      6901         2      -1.0
*CONSTRAINED_LINEAR_GLOBAL
       222
      9243         3       1.0
      6901         3      -1.0
*CONSTRAINED_LINEAR_GLOBAL
       223
      9244         1       1.0
      6902         1      -1.0
*CONSTRAINED_LINEAR_GLOBAL
       224
      9244         2       1.0
      6902         2      -1.0
*CONSTRAINED_LINEAR_GLOBAL
       225
      9244         3       1.0
      6902         3      -1.0
*CONSTRAINED_LINEAR_GLOBAL
       226
      9284         1       1.0
      6942         1      -1.0
*CONSTRAINED_LINEAR_GLOBAL
       227
      9284         2       1.0
      6942         2      -1.0
*CONSTRAINED_LINEAR_GLOBAL
       228
      9284         3       1.0
      6942         3      -1.0
*CONSTRAINED_LINEAR_GLOBAL
       229
      9285         1       1.0
      6943         1      -1.0
*CONSTRAINED_LINEAR_GLOBAL
       230
      9285         2       1.0
      6943         2      -1.0
*CONSTRAINED_LINEAR_GLOBAL
       231
      9285         3       1.0
      6943         3      -1.0
*CONSTRAINED_LINEAR_GLOBAL
       232
      9334         1       1.0
      6992         1      -1.0
*CONSTRAINED_LINEAR_GLOBAL
       233
      9334         2       1.0
      6992         2      -1.0
*CONSTRAINED_LINEAR_GLOBAL
       234
      9334         3       1.0
      6992         3      -1.0
*CONSTRAINED_LINEAR_GLOBAL
       235
      9354         1       1.0
      7012         1      -1.0
*CONSTRAINED_LINEAR_GLOBAL
       236
      9354         2       1.0
      7012         2      -1.0
*CONSTRAINED_LINEAR_GLOBAL
       237
      9354         3       1.0
      7012         3      -1.0
*CONSTRAINED_LINEAR_GLOBAL
       238
      9374         1       1.0
      7032         1      -1.0
*CONSTRAINED_LINEAR_GLOBAL
       239
      9374         2       1.0
      7032         2      -1.0
*CONSTRAINED_LINEAR_GLOBAL
       240
      9374         3       1.0
      7032         3      -1.0
*CONSTRAINED_LINEAR_GLOBAL
       241
      9385         1       1.0
      7043         1      -1.0
*CONSTRAINED_LINEAR_GLOBAL
       242
      9385         2       1.0
      7043         2      -1.0
*CONSTRAINED_LINEAR_GLOBAL
       243
      9385         3       1.0
      7043         3      -1.0
*CONSTRAINED_LINEAR_GLOBAL
         1
      5189         1       1.0
        18         1      -1.0
*CONSTRAINED_LINEAR_GLOBAL
         2
      5189         2       1.0
        18         2      -1.0
*CONSTRAINED_LINEAR_GLOBAL
         3
      5189         3       1.0
        18         3      -1.0
*CONSTRAINED_LINEAR_GLOBAL
         4
      5190         1       1.0
        18         1      -1.0
*CONSTRAINED_LINEAR_GLOBAL
         5
      5190         2       1.0
        18         2      -1.0
*CONSTRAINED_LINEAR_GLOBAL
         6
      5190         3       1.0
        18         3      -1.0
*CONSTRAINED_LINEAR_GLOBAL
         7
      5191         1       1.0
        18         1      -1.0
*CONSTRAINED_LINEAR_GLOBAL
         8
      5191         2       1.0
        18         2      -1.0
*CONSTRAINED_LINEAR_GLOBAL
         9
      5191         3       1.0
        18         3      -1.0
*CONSTRAINED_LINEAR_GLOBAL
        10
      5192         1       1.0
        18         1      -1.0
*CONSTRAINED_LINEAR_GLOBAL
        11
      5192         2       1.0
        18         2      -1.0
*CONSTRAINED_LINEAR_GLOBAL
        12
      5192         3       1.0
        18         3      -1.0
*CONSTRAINED_LINEAR_GLOBAL
        13
      5211         1       1.0
        18         1      -1.0
*CONSTRAINED_LINEAR_GLOBAL
        14
      5211         2       1.0
        18         2      -1.0
*CONSTRAINED_LINEAR_GLOBAL
        15
      5211         3       1.0
        18         3      -1.0
*CONSTRAINED_LINEAR_GLOBAL
        16
      5212         1       1.0
        18         1      -1.0
*CONSTRAINED_LINEAR_GLOBAL
        17
      5212         2       1.0
        18         2      -1.0
*CONSTRAINED_LINEAR_GLOBAL
        18
      5212         3       1.0
        18         3      -1.0
*CONSTRAINED_LINEAR_GLOBAL
        19
      5231         1       1.0
        18         1      -1.0
*CONSTRAINED_LINEAR_GLOBAL
        20
      5231         2       1.0
        18         2      -1.0
*CONSTRAINED_LINEAR_GLOBAL
        21
      5231         3       1.0
        18         3      -1.0
*CONSTRAINED_LINEAR_GLOBAL
        22
      5232         1       1.0
        18         1      -1.0
*CONSTRAINED_LINEAR_GLOBAL
        23
      5232         2       1.0
        18         2      -1.0
*CONSTRAINED_LINEAR_GLOBAL
        24
      5232         3       1.0
        18         3      -1.0
*CONSTRAINED_LINEAR_GLOBAL
        25
      5242         1       1.0
        18         1      -1.0
*CONSTRAINED_LINEAR_GLOBAL
        26
      5242         2       1.0
        18         2      -1.0
*CONSTRAINED_LINEAR_GLOBAL
        27
      5242         3       1.0
        18         3      -1.0
*CONSTRAINED_LINEAR_GLOBAL
        28
      5261         1       1.0
        18         1      -1.0
*CONSTRAINED_LINEAR_GLOBAL
        29
      5261         2       1.0
        18         2      -1.0
*CONSTRAINED_LINEAR_GLOBAL
        30
      5261         3       1.0
        18         3      -1.0
*CONSTRAINED_LINEAR_GLOBAL
        31
      5262         1       1.0
        18         1      -1.0
*CONSTRAINED_LINEAR_GLOBAL
        32
      5262         2       1.0
        18         2      -1.0
*CONSTRAINED_LINEAR_GLOBAL
        33
      5262         3       1.0
        18         3      -1.0
*CONSTRAINED_LINEAR_GLOBAL
        34
      5272         1       1.0
        18         1      -1.0
*CONSTRAINED_LINEAR_GLOBAL
        35
      5272         2       1.0
        18         2      -1.0
*CONSTRAINED_LINEAR_GLOBAL
        36
      5272         3       1.0
        18         3      -1.0
*CONSTRAINED_LINEAR_GLOBAL
        37
      5311         1       1.0
        18         1      -1.0
*CONSTRAINED_LINEAR_GLOBAL
        38
      5311         2       1.0
        18         2      -1.0
*CONSTRAINED_LINEAR_GLOBAL
        39
      5311         3       1.0
        18         3      -1.0
*CONSTRAINED_LINEAR_GLOBAL
        40
      5312         1       1.0
        18         1      -1.0
*CONSTRAINED_LINEAR_GLOBAL
        41
      5312         2       1.0
        18         2      -1.0
*CONSTRAINED_LINEAR_GLOBAL
        42
      5312         3       1.0
        18         3      -1.0
*CONSTRAINED_LINEAR_GLOBAL
        43
      5332         1       1.0
        18         1      -1.0
*CONSTRAINED_LINEAR_GLOBAL
        44
      5332         2       1.0
        18         2      -1.0
*CONSTRAINED_LINEAR_GLOBAL
        45
      5332         3       1.0
        18         3      -1.0
*CONSTRAINED_LINEAR_GLOBAL
        46
      5370         1       1.0
        18         1      -1.0
*CONSTRAINED_LINEAR_GLOBAL
        47
      5370         2       1.0
        18         2      -1.0
*CONSTRAINED_LINEAR_GLOBAL
        48
      5370         3       1.0
        18         3      -1.0
*CONSTRAINED_LINEAR_GLOBAL
        49
      5371         1       1.0
        18         1      -1.0
*CONSTRAINED_LINEAR_GLOBAL
        50
      5371         2       1.0
        18         2      -1.0
*CONSTRAINED_LINEAR_GLOBAL
        51
      5371         3       1.0
        18         3      -1.0
*CONSTRAINED_LINEAR_GLOBAL
        52
      5391         1       1.0
        18         1      -1.0
*CONSTRAINED_LINEAR_GLOBAL
        53
      5391         2       1.0
        18         2      -1.0
*CONSTRAINED_LINEAR_GLOBAL
        54
      5391         3       1.0
        18         3      -1.0
*CONSTRAINED_LINEAR_GLOBAL
        55
      5411         1       1.0
        18         1      -1.0
*CONSTRAINED_LINEAR_GLOBAL
        56
      5411         2       1.0
        18         2      -1.0
*CONSTRAINED_LINEAR_GLOBAL
        57
      5411         3       1.0
        18         3      -1.0
*CONSTRAINED_LINEAR_GLOBAL
        58
      5412         1       1.0
        18         1      -1.0
*CONSTRAINED_LINEAR_GLOBAL
        59
      5412         2       1.0
        18         2      -1.0
*CONSTRAINED_LINEAR_GLOBAL
        60
      5412         3       1.0
        18         3      -1.0
*CONSTRAINED_LINEAR_GLOBAL
        61
      5422         1       1.0
        18         1      -1.0
*CONSTRAINED_LINEAR_GLOBAL
        62
      5422         2       1.0
        18         2      -1.0
*CONSTRAINED_LINEAR_GLOBAL
        63
      5422         3       1.0
        18         3      -1.0
*CONSTRAINED_LINEAR_GLOBAL
        64
      5461         1       1.0
        18         1      -1.0
*CONSTRAINED_LINEAR_GLOBAL
        65
      5461         2       1.0
        18         2      -1.0
*CONSTRAINED_LINEAR_GLOBAL
        66
      5461         3       1.0
        18         3      -1.0
*CONSTRAINED_LINEAR_GLOBAL
        67
      5481         1       1.0
        18         1      -1.0
*CONSTRAINED_LINEAR_GLOBAL
        68
      5481         2       1.0
        18         2      -1.0
*CONSTRAINED_LINEAR_GLOBAL
        69
      5481         3       1.0
        18         3      -1.0
*CONSTRAINED_LINEAR_GLOBAL
        70
      5501         1       1.0
        18         1      -1.0
*CONSTRAINED_LINEAR_GLOBAL
        71
      5501         2       1.0
        18         2      -1.0
*CONSTRAINED_LINEAR_GLOBAL
        72
      5501         3       1.0
        18         3      -1.0
*CONSTRAINED_LINEAR_GLOBAL
        73
      5512         1       1.0
        18         1      -1.0
*CONSTRAINED_LINEAR_GLOBAL
        74
      5512         2       1.0
        18         2      -1.0
*CONSTRAINED_LINEAR_GLOBAL
        75
      5512         3       1.0
        18         3      -1.0
*CONSTRAINED_LINEAR_GLOBAL
        76
      6360         1       1.0
        18         1      -1.0
*CONSTRAINED_LINEAR_GLOBAL
        77
      6360         2       1.0
        18         2      -1.0
*CONSTRAINED_LINEAR_GLOBAL
        78
      6360         3       1.0
        18         3      -1.0
*CONSTRAINED_LINEAR_GLOBAL
        79
      6361         1       1.0
        18         1      -1.0
*CONSTRAINED_LINEAR_GLOBAL
        80
      6361         2       1.0
        18         2      -1.0
*CONSTRAINED_LINEAR_GLOBAL
        81
      6361         3       1.0
        18         3      -1.0
*CONSTRAINED_LINEAR_GLOBAL
        82
      6382         1       1.0
        18         1      -1.0
*CONSTRAINED_LINEAR_GLOBAL
        83
      6382         2       1.0
        18         2      -1.0
*CONSTRAINED_LINEAR_GLOBAL
        84
      6382         3       1.0
        18         3      -1.0
*CONSTRAINED_LINEAR_GLOBAL
        85
      6402         1       1.0
        18         1      -1.0
*CONSTRAINED_LINEAR_GLOBAL
        86
      6402         2       1.0
        18         2      -1.0
*CONSTRAINED_LINEAR_GLOBAL
        87
      6402         3       1.0
        18         3      -1.0
*CONSTRAINED_LINEAR_GLOBAL
        88
      6403         1       1.0
        18         1      -1.0
*CONSTRAINED_LINEAR_GLOBAL
        89
      6403         2       1.0
        18         2      -1.0
*CONSTRAINED_LINEAR_GLOBAL
        90
      6403         3       1.0
        18         3      -1.0
*CONSTRAINED_LINEAR_GLOBAL
        91
      6413         1       1.0
        18         1      -1.0
*CONSTRAINED_LINEAR_GLOBAL
        92
      6413         2       1.0
        18         2      -1.0
*CONSTRAINED_LINEAR_GLOBAL
        93
      6413         3       1.0
        18         3      -1.0
*CONSTRAINED_LINEAR_GLOBAL
        94
      6432         1       1.0
        18         1      -1.0
*CONSTRAINED_LINEAR_GLOBAL
        95
      6432         2       1.0
        18         2      -1.0
*CONSTRAINED_LINEAR_GLOBAL
        96
      6432         3       1.0
        18         3      -1.0
*CONSTRAINED_LINEAR_GLOBAL
        97
      6433         1       1.0
        18         1      -1.0
*CONSTRAINED_LINEAR_GLOBAL
        98
      6433         2       1.0
        18         2      -1.0
*CONSTRAINED_LINEAR_GLOBAL
        99
      6433         3       1.0
        18         3      -1.0
*CONSTRAINED_LINEAR_GLOBAL
       100
      6443         1       1.0
        18         1      -1.0
*CONSTRAINED_LINEAR_GLOBAL
       101
      6443         2       1.0
        18         2      -1.0
*CONSTRAINED_LINEAR_GLOBAL
       102
      6443         3       1.0
        18         3      -1.0
*CONSTRAINED_LINEAR_GLOBAL
       103
      6482         1       1.0
        18         1      -1.0
*CONSTRAINED_LINEAR_GLOBAL
       104
      6482         2       1.0
        18         2      -1.0
*CONSTRAINED_LINEAR_GLOBAL
       105
      6482         3       1.0
        18         3      -1.0
*CONSTRAINED_LINEAR_GLOBAL
       106
      6483         1       1.0
        18         1      -1.0
*CONSTRAINED_LINEAR_GLOBAL
       107
      6483         2       1.0
        18         2      -1.0
*CONSTRAINED_LINEAR_GLOBAL
       108
      6483         3       1.0
        18         3      -1.0
*CONSTRAINED_LINEAR_GLOBAL
       109
      6503         1       1.0
        18         1      -1.0
*CONSTRAINED_LINEAR_GLOBAL
       110
      6503         2       1.0
        18         2      -1.0
*CONSTRAINED_LINEAR_GLOBAL
       111
      6503         3       1.0
        18         3      -1.0
*CONSTRAINED_LINEAR_GLOBAL
       112
      6541         1       1.0
        18         1      -1.0
*CONSTRAINED_LINEAR_GLOBAL
       113
      6541         2       1.0
        18         2      -1.0
*CONSTRAINED_LINEAR_GLOBAL
       114
      6541         3       1.0
        18         3      -1.0
*CONSTRAINED_LINEAR_GLOBAL
       115
      6542         1       1.0
        18         1      -1.0
*CONSTRAINED_LINEAR_GLOBAL
       116
      6542         2       1.0
        18         2      -1.0
*CONSTRAINED_LINEAR_GLOBAL
       117
      6542         3       1.0
        18         3      -1.0
*CONSTRAINED_LINEAR_GLOBAL
       118
      6582         1       1.0
        18         1      -1.0
*CONSTRAINED_LINEAR_GLOBAL
       119
      6582         2       1.0
        18         2      -1.0
*CONSTRAINED_LINEAR_GLOBAL
       120
      6582         3       1.0
        18         3      -1.0
*CONSTRAINED_LINEAR_GLOBAL
       121
      6583         1       1.0
        18         1      -1.0
*CONSTRAINED_LINEAR_GLOBAL
       122
      6583         2       1.0
        18         2      -1.0
*CONSTRAINED_LINEAR_GLOBAL
       123
      6583         3       1.0
        18         3      -1.0
*CONSTRAINED_LINEAR_GLOBAL
       124
      6632         1       1.0
        18         1      -1.0
*CONSTRAINED_LINEAR_GLOBAL
       125
      6632         2       1.0
        18         2      -1.0
*CONSTRAINED_LINEAR_GLOBAL
       126
      6632         3       1.0
        18         3      -1.0
*CONSTRAINED_LINEAR_GLOBAL
       127
      6652         1       1.0
        18         1      -1.0
*CONSTRAINED_LINEAR_GLOBAL
       128
      6652         2       1.0
        18         2      -1.0
*CONSTRAINED_LINEAR_GLOBAL
       129
      6652         3       1.0
        18         3      -1.0
*CONSTRAINED_LINEAR_GLOBAL
       130
      6672         1       1.0
        18         1      -1.0
*CONSTRAINED_LINEAR_GLOBAL
       131
      6672         2       1.0
        18         2      -1.0
*CONSTRAINED_LINEAR_GLOBAL
       132
      6672         3       1.0
        18         3      -1.0
*CONSTRAINED_LINEAR_GLOBAL
       133
      6683         1       1.0
        18         1      -1.0
*CONSTRAINED_LINEAR_GLOBAL
       134
      6683         2       1.0
        18         2      -1.0
*CONSTRAINED_LINEAR_GLOBAL
       135
      6683         3       1.0
        18         3      -1.0
*CONSTRAINED_LINEAR_GLOBAL
       136
      7531         1       1.0
        18         1      -1.0
*CONSTRAINED_LINEAR_GLOBAL
       137
      7531         2       1.0
        18         2      -1.0
*CONSTRAINED_LINEAR_GLOBAL
       138
      7531         3       1.0
        18         3      -1.0
*CONSTRAINED_LINEAR_GLOBAL
       139
      7532         1       1.0
        18         1      -1.0
*CONSTRAINED_LINEAR_GLOBAL
       140
      7532         2       1.0
        18         2      -1.0
*CONSTRAINED_LINEAR_GLOBAL
       141
      7532         3       1.0
        18         3      -1.0
*CONSTRAINED_LINEAR_GLOBAL
       142
      7533         1       1.0
        18         1      -1.0
*CONSTRAINED_LINEAR_GLOBAL
       143
      7533         2       1.0
        18         2      -1.0
*CONSTRAINED_LINEAR_GLOBAL
       144
      7533         3       1.0
        18         3      -1.0
*CONSTRAINED_LINEAR_GLOBAL
       145
      7534         1       1.0
        18         1      -1.0
*CONSTRAINED_LINEAR_GLOBAL
       146
      7534         2       1.0
        18         2      -1.0
*CONSTRAINED_LINEAR_GLOBAL
       147
      7534         3       1.0
        18         3      -1.0
*CONSTRAINED_LINEAR_GLOBAL
       148
      7573         1       1.0
        18         1      -1.0
*CONSTRAINED_LINEAR_GLOBAL
       149
      7573         2       1.0
        18         2      -1.0
*CONSTRAINED_LINEAR_GLOBAL
       150
      7573         3       1.0
        18         3      -1.0
*CONSTRAINED_LINEAR_GLOBAL
       151
      7574         1       1.0
        18         1      -1.0
*CONSTRAINED_LINEAR_GLOBAL
       152
      7574         2       1.0
        18         2      -1.0
*CONSTRAINED_LINEAR_GLOBAL
       153
      7574         3       1.0
        18         3      -1.0
*CONSTRAINED_LINEAR_GLOBAL
       154
      7603         1       1.0
        18         1      -1.0
*CONSTRAINED_LINEAR_GLOBAL
       155
      7603         2       1.0
        18         2      -1.0
*CONSTRAINED_LINEAR_GLOBAL
       156
      7603         3       1.0
        18         3      -1.0
*CONSTRAINED_LINEAR_GLOBAL
       157
      7604         1       1.0
        18         1      -1.0
*CONSTRAINED_LINEAR_GLOBAL
       158
      7604         2       1.0
        18         2      -1.0
*CONSTRAINED_LINEAR_GLOBAL
       159
      7604         3       1.0
        18         3      -1.0
*CONSTRAINED_LINEAR_GLOBAL
       160
      7653         1       1.0
        18         1      -1.0
*CONSTRAINED_LINEAR_GLOBAL
       161
      7653         2       1.0
        18         2      -1.0
*CONSTRAINED_LINEAR_GLOBAL
       162
      7653         3       1.0
        18         3      -1.0
*CONSTRAINED_LINEAR_GLOBAL
       163
      7654         1       1.0
        18         1      -1.0
*CONSTRAINED_LINEAR_GLOBAL
       164
      7654         2       1.0
        18         2      -1.0
*CONSTRAINED_LINEAR_GLOBAL
       165
      7654         3       1.0
        18         3      -1.0
*CONSTRAINED_LINEAR_GLOBAL
       166
      7712         1       1.0
        18         1      -1.0
*CONSTRAINED_LINEAR_GLOBAL
       167
      7712         2       1.0
        18         2      -1.0
*CONSTRAINED_LINEAR_GLOBAL
       168
      7712         3       1.0
        18         3      -1.0
*CONSTRAINED_LINEAR_GLOBAL
       169
      7713         1       1.0
        18         1      -1.0
*CONSTRAINED_LINEAR_GLOBAL
       170
      7713         2       1.0
        18         2      -1.0
*CONSTRAINED_LINEAR_GLOBAL
       171
      7713         3       1.0
        18         3      -1.0
*CONSTRAINED_LINEAR_GLOBAL
       172
      7733         1       1.0
        18         1      -1.0
*CONSTRAINED_LINEAR_GLOBAL
       173
      7733         2       1.0
        18         2      -1.0
*CONSTRAINED_LINEAR_GLOBAL
       174
      7733         3       1.0
        18         3      -1.0
*CONSTRAINED_LINEAR_GLOBAL
       175
      7753         1       1.0
        18         1      -1.0
*CONSTRAINED_LINEAR_GLOBAL
       176
      7753         2       1.0
        18         2      -1.0
*CONSTRAINED_LINEAR_GLOBAL
       177
      7753         3       1.0
        18         3      -1.0
*CONSTRAINED_LINEAR_GLOBAL
       178
      7754         1       1.0
        18         1      -1.0
*CONSTRAINED_LINEAR_GLOBAL
       179
      7754         2       1.0
        18         2      -1.0
*CONSTRAINED_LINEAR_GLOBAL
       180
      7754         3       1.0
        18         3      -1.0
*CONSTRAINED_LINEAR_GLOBAL
       181
      7764         1       1.0
        18         1      -1.0
*CONSTRAINED_LINEAR_GLOBAL
       182
      7764         2       1.0
        18         2      -1.0
*CONSTRAINED_LINEAR_GLOBAL
       183
      7764         3       1.0
        18         3      -1.0
*CONSTRAINED_LINEAR_GLOBAL
       184
      7803         1       1.0
        18         1      -1.0
*CONSTRAINED_LINEAR_GLOBAL
       185
      7803         2       1.0
        18         2      -1.0
*CONSTRAINED_LINEAR_GLOBAL
       186
      7803         3       1.0
        18         3      -1.0
*CONSTRAINED_LINEAR_GLOBAL
       187
      7823         1       1.0
        18         1      -1.0
*CONSTRAINED_LINEAR_GLOBAL
       188
      7823         2       1.0
        18         2      -1.0
*CONSTRAINED_LINEAR_GLOBAL
       189
      7823         3       1.0
        18         3      -1.0
*CONSTRAINED_LINEAR_GLOBAL
       190
      7843         1       1.0
        18         1      -1.0
*CONSTRAINED_LINEAR_GLOBAL
       191
      7843         2       1.0
        18         2      -1.0
*CONSTRAINED_LINEAR_GLOBAL
       192
      7843         3       1.0
        18         3      -1.0
*CONSTRAINED_LINEAR_GLOBAL
       193
      7854         1       1.0
        18         1      -1.0
*CONSTRAINED_LINEAR_GLOBAL
       194
      7854         2       1.0
        18         2      -1.0
*CONSTRAINED_LINEAR_GLOBAL
       195
      7854         3       1.0
        18         3      -1.0
*CONSTRAINED_LINEAR_GLOBAL
       196
      8702         1       1.0
        18         1      -1.0
*CONSTRAINED_LINEAR_GLOBAL
       197
      8702         2       1.0
        18         2      -1.0
*CONSTRAINED_LINEAR_GLOBAL
       198
      8702         3       1.0
        18         3      -1.0
*CONSTRAINED_LINEAR_GLOBAL
       199
      8703         1       1.0
        18         1      -1.0
*CONSTRAINED_LINEAR_GLOBAL
       200
      8703         2       1.0
        18         2      -1.0
*CONSTRAINED_LINEAR_GLOBAL
       201
      8703         3       1.0
        18         3      -1.0
*CONSTRAINED_LINEAR_GLOBAL
       202
      8744         1       1.0
        18         1      -1.0
*CONSTRAINED_LINEAR_GLOBAL
       203
      8744         2       1.0
        18         2      -1.0
*CONSTRAINED_LINEAR_GLOBAL
       204
      8744         3       1.0
        18         3      -1.0
*CONSTRAINED_LINEAR_GLOBAL
       205
      8745         1       1.0
        18         1      -1.0
*CONSTRAINED_LINEAR_GLOBAL
       206
      8745         2       1.0
        18         2      -1.0
*CONSTRAINED_LINEAR_GLOBAL
       207
      8745         3       1.0
        18         3      -1.0
*CONSTRAINED_LINEAR_GLOBAL
       208
      8774         1       1.0
        18         1      -1.0
*CONSTRAINED_LINEAR_GLOBAL
       209
      8774         2       1.0
        18         2      -1.0
*CONSTRAINED_LINEAR_GLOBAL
       210
      8774         3       1.0
        18         3      -1.0
*CONSTRAINED_LINEAR_GLOBAL
       211
      8775         1       1.0
        18         1      -1.0
*CONSTRAINED_LINEAR_GLOBAL
       212
      8775         2       1.0
        18         2      -1.0
*CONSTRAINED_LINEAR_GLOBAL
       213
      8775         3       1.0
        18         3      -1.0
*CONSTRAINED_LINEAR_GLOBAL
       214
      8824         1       1.0
        18         1      -1.0
*CONSTRAINED_LINEAR_GLOBAL
       215
      8824         2       1.0
        18         2      -1.0
*CONSTRAINED_LINEAR_GLOBAL
       216
      8824         3       1.0
        18         3      -1.0
*CONSTRAINED_LINEAR_GLOBAL
       217
      8825         1       1.0
        18         1      -1.0
*CONSTRAINED_LINEAR_GLOBAL
       218
      8825         2       1.0
        18         2      -1.0
*CONSTRAINED_LINEAR_GLOBAL
       219
      8825         3       1.0
        18         3      -1.0
*CONSTRAINED_LINEAR_GLOBAL
       220
      8883         1       1.0
        18         1      -1.0
*CONSTRAINED_LINEAR_GLOBAL
       221
      8883         2       1.0
        18         2      -1.0
*CONSTRAINED_LINEAR_GLOBAL
       222
      8883         3       1.0
        18         3      -1.0
*CONSTRAINED_LINEAR_GLOBAL
       223
      8884         1       1.0
        18         1      -1.0
*CONSTRAINED_LINEAR_GLOBAL
       224
      8884         2       1.0
        18         2      -1.0
*CONSTRAINED_LINEAR_GLOBAL
       225
      8884         3       1.0
        18         3      -1.0
*CONSTRAINED_LINEAR_GLOBAL
       226
      8924         1       1.0
        18         1      -1.0
*CONSTRAINED_LINEAR_GLOBAL
       227
      8924         2       1.0
        18         2      -1.0
*CONSTRAINED_LINEAR_GLOBAL
       228
      8924         3       1.0
        18         3      -1.0
*CONSTRAINED_LINEAR_GLOBAL
       229
      8925         1       1.0
        18         1      -1.0
*CONSTRAINED_LINEAR_GLOBAL
       230
      8925         2       1.0
        18         2      -1.0
*CONSTRAINED_LINEAR_GLOBAL
       231
      8925         3       1.0
        18         3      -1.0
*CONSTRAINED_LINEAR_GLOBAL
       232
      8974         1       1.0
        18         1      -1.0
*CONSTRAINED_LINEAR_GLOBAL
       233
      8974         2       1.0
        18         2      -1.0
*CONSTRAINED_LINEAR_GLOBAL
       234
      8974         3       1.0
        18         3      -1.0
*CONSTRAINED_LINEAR_GLOBAL
       235
      8994         1       1.0
        18         1      -1.0
*CONSTRAINED_LINEAR_GLOBAL
       236
      8994         2       1.0
        18         2      -1.0
*CONSTRAINED_LINEAR_GLOBAL
       237
      8994         3       1.0
        18         3      -1.0
*CONSTRAINED_LINEAR_GLOBAL
       238
      9014         1       1.0
        18         1      -1.0
*CONSTRAINED_LINEAR_GLOBAL
       239
      9014         2       1.0
        18         2      -1.0
*CONSTRAINED_LINEAR_GLOBAL
       240
      9014         3       1.0
        18         3      -1.0
*CONSTRAINED_LINEAR_GLOBAL
       241
      9025         1       1.0
        18         1      -1.0
*CONSTRAINED_LINEAR_GLOBAL
       242
      9025         2       1.0
        18         2      -1.0
*CONSTRAINED_LINEAR_GLOBAL
       243
      9025         3       1.0
        18         3      -1.0
*CONSTRAINED_LINEAR_GLOBAL
         1
      2576         2       1.0
      3747         2      -1.0
*CONSTRAINED_LINEAR_GLOBAL
         2
      2576         3       1.0
      3747         3      -1.0
*CONSTRAINED_LINEAR_GLOBAL
         3
      2636         2       1.0
      3807         2      -1.0
*CONSTRAINED_LINEAR_GLOBAL
         4
      2636         3       1.0
      3807         3      -1.0
*CONSTRAINED_LINEAR_GLOBAL
         5
      2666         2       1.0
      3837         2      -1.0
*CONSTRAINED_LINEAR_GLOBAL
         6
      2666         3       1.0
      3837         3      -1.0
*CONSTRAINED_LINEAR_GLOBAL
         7
      2676         2       1.0
      3847         2      -1.0
*CONSTRAINED_LINEAR_GLOBAL
         8
      2676         3       1.0
      3847         3      -1.0
*CONSTRAINED_LINEAR_GLOBAL
         9
      2677         2       1.0
      3848         2      -1.0
*CONSTRAINED_LINEAR_GLOBAL
        10
      2677         3       1.0
      3848         3      -1.0
*CONSTRAINED_LINEAR_GLOBAL
        11
      7260         2       1.0
      8431         2      -1.0
*CONSTRAINED_LINEAR_GLOBAL
        12
      7260         3       1.0
      8431         3      -1.0
*CONSTRAINED_LINEAR_GLOBAL
        13
      7320         2       1.0
      8491         2      -1.0
*CONSTRAINED_LINEAR_GLOBAL
        14
      7320         3       1.0
      8491         3      -1.0
*CONSTRAINED_LINEAR_GLOBAL
        15
      7360         2       1.0
      8531         2      -1.0
*CONSTRAINED_LINEAR_GLOBAL
        16
      7360         3       1.0
      8531         3      -1.0
*CONSTRAINED_LINEAR_GLOBAL
        17
      7361         2       1.0
      8532         2      -1.0
*CONSTRAINED_LINEAR_GLOBAL
        18
      7361         3       1.0
      8532         3      -1.0
*CONSTRAINED_LINEAR_GLOBAL
         1
       187         2       1.0
      1506         2      -1.0
*CONSTRAINED_LINEAR_GLOBAL
         2
       187         3       1.0
      1506         3      -1.0
*CONSTRAINED_LINEAR_GLOBAL
         3
       188         2       1.0
      1505         2      -1.0
*CONSTRAINED_LINEAR_GLOBAL
         4
       188         3       1.0
      1505         3      -1.0
*CONSTRAINED_LINEAR_GLOBAL
         5
       198         2       1.0
      1495         2      -1.0
*CONSTRAINED_LINEAR_GLOBAL
         6
       198         3       1.0
      1495         3      -1.0
*CONSTRAINED_LINEAR_GLOBAL
         7
       228         2       1.0
      1465         2      -1.0
*CONSTRAINED_LINEAR_GLOBAL
         8
       228         3       1.0
      1465         3      -1.0
*CONSTRAINED_LINEAR_GLOBAL
         9
       288         2       1.0
      1405         2      -1.0
*CONSTRAINED_LINEAR_GLOBAL
        10
       288         3       1.0
      1405         3      -1.0
*CONSTRAINED_LINEAR_GLOBAL
        11
      4918         2       1.0
      6089         2      -1.0
*CONSTRAINED_LINEAR_GLOBAL
        12
      4918         3       1.0
      6089         3      -1.0
*CONSTRAINED_LINEAR_GLOBAL
        13
      4978         2       1.0
      6149         2      -1.0
*CONSTRAINED_LINEAR_GLOBAL
        14
      4978         3       1.0
      6149         3      -1.0
*CONSTRAINED_LINEAR_GLOBAL
        15
      5018         2       1.0
      6189         2      -1.0
*CONSTRAINED_LINEAR_GLOBAL
        16
      5018         3       1.0
      6189         3      -1.0
*CONSTRAINED_LINEAR_GLOBAL
        17
      5019         2       1.0
      6190         2      -1.0
*CONSTRAINED_LINEAR_GLOBAL
        18
      5019         3       1.0
      6190         3      -1.0
*CONSTRAINED_LINEAR_GLOBAL
         1
      4738         2       1.0
      5909         2      -1.0
*CONSTRAINED_LINEAR_GLOBAL
         2
      4738         3       1.0
      5909         3      -1.0
*CONSTRAINED_LINEAR_GLOBAL
         3
      4758         2       1.0
      5929         2      -1.0
*CONSTRAINED_LINEAR_GLOBAL
         4
      4758         3       1.0
      5929         3      -1.0
*CONSTRAINED_LINEAR_GLOBAL
         5
      4761         2       1.0
      5932         2      -1.0
*CONSTRAINED_LINEAR_GLOBAL
         6
      4761         3       1.0
      5932         3      -1.0
*CONSTRAINED_LINEAR_GLOBAL
         7
      4938         2       1.0
      6109         2      -1.0
*CONSTRAINED_LINEAR_GLOBAL
         8
      4938         3       1.0
      6109         3      -1.0
*CONSTRAINED_LINEAR_GLOBAL
         9
      4941         2       1.0
      6112         2      -1.0
*CONSTRAINED_LINEAR_GLOBAL
        10
      4941         3       1.0
      6112         3      -1.0
*CONSTRAINED_LINEAR_GLOBAL
        11
      7080         2       1.0
      8251         2      -1.0
*CONSTRAINED_LINEAR_GLOBAL
        12
      7080         3       1.0
      8251         3      -1.0
*CONSTRAINED_LINEAR_GLOBAL
        13
      7103         2       1.0
      8274         2      -1.0
*CONSTRAINED_LINEAR_GLOBAL
        14
      7103         3       1.0
      8274         3      -1.0
*CONSTRAINED_LINEAR_GLOBAL
        15
      7280         2       1.0
      8451         2      -1.0
*CONSTRAINED_LINEAR_GLOBAL
        16
      7280         3       1.0
      8451         3      -1.0
*CONSTRAINED_LINEAR_GLOBAL
        17
      7283         2       1.0
      8454         2      -1.0
*CONSTRAINED_LINEAR_GLOBAL
        18
      7283         3       1.0
      8454         3      -1.0
*CONSTRAINED_LINEAR_GLOBAL
         1
       265         2       1.0
      1428         2      -1.0
*CONSTRAINED_LINEAR_GLOBAL
         2
       265         3       1.0
      1428         3      -1.0
*CONSTRAINED_LINEAR_GLOBAL
         3
       268         2       1.0
      1425         2      -1.0
*CONSTRAINED_LINEAR_GLOBAL
         4
       268         3       1.0
      1425         3      -1.0
*CONSTRAINED_LINEAR_GLOBAL
         5
       445         2       1.0
      1248         2      -1.0
*CONSTRAINED_LINEAR_GLOBAL
         6
       445         3       1.0
      1248         3      -1.0
*CONSTRAINED_LINEAR_GLOBAL
         7
       448         2       1.0
      1245         2      -1.0
*CONSTRAINED_LINEAR_GLOBAL
         8
       448         3       1.0
      1245         3      -1.0
*CONSTRAINED_LINEAR_GLOBAL
         9
       468         2       1.0
      1225         2      -1.0
*CONSTRAINED_LINEAR_GLOBAL
        10
       468         3       1.0
      1225         3      -1.0
*CONSTRAINED_LINEAR_GLOBAL
        11
      2396         2       1.0
      3567         2      -1.0
*CONSTRAINED_LINEAR_GLOBAL
        12
      2396         3       1.0
      3567         3      -1.0
*CONSTRAINED_LINEAR_GLOBAL
        13
      2419         2       1.0
      3590         2      -1.0
*CONSTRAINED_LINEAR_GLOBAL
        14
      2419         3       1.0
      3590         3      -1.0
*CONSTRAINED_LINEAR_GLOBAL
        15
      2596         2       1.0
      3767         2      -1.0
*CONSTRAINED_LINEAR_GLOBAL
        16
      2596         3       1.0
      3767         3      -1.0
*CONSTRAINED_LINEAR_GLOBAL
        17
      2599         2       1.0
      3770         2      -1.0
*CONSTRAINED_LINEAR_GLOBAL
        18
      2599         3       1.0
      3770         3      -1.0
*CONSTRAINED_LINEAR_GLOBAL
         1
      7711         1       1.0
      5369         1      -1.0
*CONSTRAINED_LINEAR_GLOBAL
         2
      7711         2       1.0
      5369         2      -1.0
*CONSTRAINED_LINEAR_GLOBAL
         3
      7711         3       1.0
      5369         3      -1.0
*CONSTRAINED_LINEAR_GLOBAL
         4
      7714         1       1.0
      5372         1      -1.0
*CONSTRAINED_LINEAR_GLOBAL
         5
      7714         2       1.0
      5372         2      -1.0
*CONSTRAINED_LINEAR_GLOBAL
         6
      7714         3       1.0
      5372         3      -1.0
*CONSTRAINED_LINEAR_GLOBAL
         7
      7734         1       1.0
      5392         1      -1.0
*CONSTRAINED_LINEAR_GLOBAL
         8
      7734         2       1.0
      5392         2      -1.0
*CONSTRAINED_LINEAR_GLOBAL
         9
      7734         3       1.0
      5392         3      -1.0
*CONSTRAINED_LINEAR_GLOBAL
        10
      7804         1       1.0
      5462         1      -1.0
*CONSTRAINED_LINEAR_GLOBAL
        11
      7804         2       1.0
      5462         2      -1.0
*CONSTRAINED_LINEAR_GLOBAL
        12
      7804         3       1.0
      5462         3      -1.0
*CONSTRAINED_LINEAR_GLOBAL
        13
      7824         1       1.0
      5482         1      -1.0
*CONSTRAINED_LINEAR_GLOBAL
        14
      7824         2       1.0
      5482         2      -1.0
*CONSTRAINED_LINEAR_GLOBAL
        15
      7824         3       1.0
      5482         3      -1.0
*CONSTRAINED_LINEAR_GLOBAL
        16
      8882         1       1.0
      6540         1      -1.0
*CONSTRAINED_LINEAR_GLOBAL
        17
      8882         2       1.0
      6540         2      -1.0
*CONSTRAINED_LINEAR_GLOBAL
        18
      8882         3       1.0
      6540         3      -1.0
*CONSTRAINED_LINEAR_GLOBAL
        19
      8885         1       1.0
      6543         1      -1.0
*CONSTRAINED_LINEAR_GLOBAL
        20
      8885         2       1.0
      6543         2      -1.0
*CONSTRAINED_LINEAR_GLOBAL
        21
      8885         3       1.0
      6543         3      -1.0
*CONSTRAINED_LINEAR_GLOBAL
        22
      8975         1       1.0
      6633         1      -1.0
*CONSTRAINED_LINEAR_GLOBAL
        23
      8975         2       1.0
      6633         2      -1.0
*CONSTRAINED_LINEAR_GLOBAL
        24
      8975         3       1.0
      6633         3      -1.0
*CONSTRAINED_LINEAR_GLOBAL
        25
      8995         1       1.0
      6653         1      -1.0
*CONSTRAINED_LINEAR_GLOBAL
        26
      8995         2       1.0
      6653         2      -1.0
*CONSTRAINED_LINEAR_GLOBAL
        27
      8995         3       1.0
      6653         3      -1.0
*CONSTRAINED_LINEAR_GLOBAL
         1
      3027         1       1.0
       685         1      -1.0
*CONSTRAINED_LINEAR_GLOBAL
         2
      3027         2       1.0
       685         2      -1.0
*CONSTRAINED_LINEAR_GLOBAL
         3
      3027         3       1.0
       685         3      -1.0
*CONSTRAINED_LINEAR_GLOBAL
         4
      3030         1       1.0
       688         1      -1.0
*CONSTRAINED_LINEAR_GLOBAL
         5
      3030         2       1.0
       688         2      -1.0
*CONSTRAINED_LINEAR_GLOBAL
         6
      3030         3       1.0
       688         3      -1.0
*CONSTRAINED_LINEAR_GLOBAL
         7
      3050         1       1.0
       708         1      -1.0
*CONSTRAINED_LINEAR_GLOBAL
         8
      3050         2       1.0
       708         2      -1.0
*CONSTRAINED_LINEAR_GLOBAL
         9
      3050         3       1.0
       708         3      -1.0
*CONSTRAINED_LINEAR_GLOBAL
        10
      3120         1       1.0
       778         1      -1.0
*CONSTRAINED_LINEAR_GLOBAL
        11
      3120         2       1.0
       778         2      -1.0
*CONSTRAINED_LINEAR_GLOBAL
        12
      3120         3       1.0
       778         3      -1.0
*CONSTRAINED_LINEAR_GLOBAL
        13
      3140         1       1.0
       798         1      -1.0
*CONSTRAINED_LINEAR_GLOBAL
        14
      3140         2       1.0
       798         2      -1.0
*CONSTRAINED_LINEAR_GLOBAL
        15
      3140         3       1.0
       798         3      -1.0
*CONSTRAINED_LINEAR_GLOBAL
        16
      4198         1       1.0
      1856         1      -1.0
*CONSTRAINED_LINEAR_GLOBAL
        17
      4198         2       1.0
      1856         2      -1.0
*CONSTRAINED_LINEAR_GLOBAL
        18
      4198         3       1.0
      1856         3      -1.0
*CONSTRAINED_LINEAR_GLOBAL
        19
      4201         1       1.0
      1859         1      -1.0
*CONSTRAINED_LINEAR_GLOBAL
        20
      4201         2       1.0
      1859         2      -1.0
*CONSTRAINED_LINEAR_GLOBAL
        21
      4201         3       1.0
      1859         3      -1.0
*CONSTRAINED_LINEAR_GLOBAL
        22
      4291         1       1.0
      1949         1      -1.0
*CONSTRAINED_LINEAR_GLOBAL
        23
      4291         2       1.0
      1949         2      -1.0
*CONSTRAINED_LINEAR_GLOBAL
        24
      4291         3       1.0
      1949         3      -1.0
*CONSTRAINED_LINEAR_GLOBAL
        25
      4311         1       1.0
      1969         1      -1.0
*CONSTRAINED_LINEAR_GLOBAL
        26
      4311         2       1.0
      1969         2      -1.0
*CONSTRAINED_LINEAR_GLOBAL
        27
      4311         3       1.0
      1969         3      -1.0
*CONSTRAINED_LINEAR_GLOBAL
         1
      7261         2       1.0
      8432         2      -1.0
*CONSTRAINED_LINEAR_GLOBAL
         2
      7261         3       1.0
      8432         3      -1.0
*CONSTRAINED_LINEAR_GLOBAL
         1
      4919         2       1.0
      6090         2      -1.0
*CONSTRAINED_LINEAR_GLOBAL
         2
      4919         3       1.0
      6090         3      -1.0
*CONSTRAINED_LINEAR_GLOBAL
         1
      2577         2       1.0
      3748         2      -1.0
*CONSTRAINED_LINEAR_GLOBAL
         2
      2577         3       1.0
      3748         3      -1.0
*CONSTRAINED_LINEAR_GLOBAL
         1
       287         2       1.0
      1406         2      -1.0
*CONSTRAINED_LINEAR_GLOBAL
         2
       287         3       1.0
      1406         3      -1.0
*END

